Circuit: * C:\projects\digitizer.git\calc\adc-low-pass-filter.asc

Limiting rise time of source v4 to 1e-007
Limiting fall time of source v4 to 1e-007
Direct Newton iteration for .op point succeeded.

Date: Fri Jul 10 10:28:53 2015
Total elapsed time: 0.041 seconds.

tnom = 27
temp = 27
method = modified trap
totiter = 2476
traniter = 2469
tranpoints = 1235
accept = 1188
rejected = 47
matrix size = 25
fillins = 5
solver = Normal
Matrix Compiler1: 1.47 KB object code size  0.5/0.2/[0.1]
Matrix Compiler2: 2.59 KB object code size  0.2/0.2/[0.2]


