Circuit: * C:\projects\digitizer.git\calc\adc-low-pass-filter.asc

Direct Newton iteration for .op point succeeded.

Date: Fri Jul 03 15:22:50 2015
Total elapsed time: 0.370 seconds.

tnom = 27
temp = 27
method = modified trap
totiter = 32014
traniter = 32011
tranpoints = 12110
accept = 8051
rejected = 4059
matrix size = 16
fillins = 5
solver = Normal
Matrix Compiler1: 1.03 KB object code size  0.5/0.1/[0.1]
Matrix Compiler2: 1.71 KB object code size  0.2/0.1/[0.1]


